#

@<TRIPOS>MOLECULE
C:\Users\16954\Desktop\Nikkomycin Z\Nikkomycin Z .pdb
 51 54 0 0 0
SMALL
USER_CHARGES

@<TRIPOS>ATOM
      1 C           4.9560  -14.3840    0.0000 C.3       1 LIG         0.0309
      2 C1          4.4520  -12.9290    0.0000 C.2       1 LIG         0.0131
      3 C2          2.9400  -12.6380    0.0000 C.3       1 LIG         0.2115
      4 C3          1.9320  -13.8020    0.0000 C.ar      1 LIG         0.0933
      5 C4          2.4360  -15.2570    0.0000 C.ar      1 LIG         0.0209
      6 C5          1.4280  -16.4210    0.0000 C.ar      1 LIG         0.0450
      7 C6         -0.0840  -16.1300    0.0000 C.ar      1 LIG         0.2148
      8 C7         -0.5880  -14.6750    0.0000 C.ar      1 LIG         0.1404
      9 N           0.4200  -13.5110    0.0000 N.ar      1 LIG        -0.2420
     10 O          -1.0930  -17.2950    0.0000 O.3       1 LIG        -0.2849
     11 O1          2.4360  -11.1830    0.0000 O.3       1 LIG        -0.2120
     12 C8          5.4610  -11.7650    0.0000 C.2       1 LIG         0.1412
     13 C9          6.9730  -12.0560    0.0000 C.2       1 LIG         0.2921
     14 O2          7.4770  -13.5110    0.0000 O.2       1 LIG        -0.2627
     15 N1          7.9810  -10.8920    0.0000 N.2       1 LIG        -0.2152
     16 C10         9.4930  -11.1830    0.0000 C.3       1 LIG         0.2685
     17 C11        10.5010  -10.0190    0.0000 C.ar      1 LIG         0.2001
     18 C12        10.1520   -8.5190    0.0000 C.ar      1 LIG         0.2714
     19 C13        11.4710   -7.7230    0.0000 C.ar      1 LIG         0.2887
     20 C14        12.6350   -8.7310    0.0000 C.ar      1 LIG         0.2615
     21 O3         12.0360  -10.1500    0.0000 O.2       1 LIG        -0.4329
     22 N2         14.1350   -8.3820    0.0000 N.am      1 LIG        -0.2249
     23 C15        14.5820   -6.9090    0.0000 C.2       1 LIG         0.0924
     24 C16        16.0820   -6.5590    0.0000 C.2       1 LIG         0.0818
     25 C17        17.1340   -7.6840    0.0000 C.2       1 LIG         0.2846
     26 O4         18.6340   -7.3350    0.0000 O.2       1 LIG        -0.2650
     27 N3         16.6870   -9.1570    0.0000 N.am      1 LIG        -0.1528
     28 C18        15.1870   -9.5070    0.0000 C.2       1 LIG         0.3590
     29 O5         14.7400  -10.9800    0.0000 O.2       1 LIG        -0.2439
     30 O6         11.6020   -6.1890    0.0000 O.3       1 LIG        -0.2780
     31 O7          8.7330   -7.9200    0.0000 O.3       1 LIG        -0.2800
     32 C19         9.9970  -12.6380    0.0000 C.2       1 LIG         0.3942
     33 O8         11.5100  -12.9290    0.0000 O.2       1 LIG        -0.2430
     34 O9          8.9890  -13.8020    0.0000 O.3       1 LIG        -0.2443
     35 N4          4.9560  -10.3100    0.0000 N.pl3     1 LIG        -0.1236
     36 H1          6.0459  -14.3915    0.0000 H         1 LIG         0.0000
     37 H2          4.5897  -14.8959   -0.8899 H         1 LIG         0.0000
     38 H3          4.5897  -14.8959    0.8899 H         1 LIG         0.0000
     39 H4          2.9400  -12.6380   -1.0900 H         1 LIG         0.0000
     40 H5          3.5064  -15.4630    0.0000 H         1 LIG         0.0000
     41 H6          1.7848  -17.4509    0.0000 H         1 LIG         0.0000
     42 H7         -1.6584  -14.4690    0.0000 H         1 LIG         0.0000
     43 H8         -0.9484  -17.8839   -0.8572 H         1 LIG         0.0000
     44 H9          2.7889  -10.6898    0.8572 H         1 LIG         0.0000
     45 H10         9.4930  -11.1830   -1.0900 H         1 LIG         0.0000
     46 H11        13.8369   -6.1135    0.0000 H         1 LIG         0.0000
     47 H12        16.3987   -5.5160    0.0000 H         1 LIG         0.0000
     48 H13        11.1388   -5.7977   -0.8572 H         1 LIG         0.0000
     49 H14         8.2176   -8.2396   -0.8572 H         1 LIG         0.0000
     50 H15         3.9052  -10.1084    0.0000 H         1 LIG         0.0000
     51 H16         5.6560   -9.5007    0.0000 H         1 LIG         0.0000
@<TRIPOS>BOND
     1    1    2 1  
     2    2    3 1  
     3    2   12 2  
     4    3    4 1  
     5    3   11 1  
     6    4    5 2  
     7    4    9 1  
     8    5    6 1  
     9    6    7 2  
    10    7    8 1  
    11    7   10 1  
    12    8    9 2  
    13   12   13 1  
    14   12   35 1  
    15   13   14 1  
    16   13   15 2  
    17   15   16 1  
    18   16   17 1  
    19   16   32 1  
    20   17   18 2  
    21   17   21 1  
    22   18   19 1  
    23   18   31 1  
    24   19   20 2  
    25   19   30 1  
    26   20   21 1  
    27   20   22 1  
    28   22   23 1  
    29   22   28 am 
    30   23   24 2  
    31   24   25 1  
    32   25   26 2  
    33   25   27 am 
    34   27   28 am 
    35   28   29 2  
    36   32   33 2  
    37   32   34 1  
    38   14   34 1  
    39    1   36 1  
    40    1   37 1  
    41    1   38 1  
    42    3   39 1  
    43    5   40 1  
    44    6   41 1  
    45    8   42 1  
    46   10   43 1  
    47   11   44 1  
    48   16   45 1  
    49   23   46 1  
    50   24   47 1  
    51   30   48 1  
    52   31   49 1  
    53   35   50 1  
    54   35   51 1  
